Version 4
SHEET 1 880 680
WIRE 240 -128 -192 -128
WIRE -192 -112 -192 -128
WIRE 240 -80 240 -128
WIRE 240 -80 160 -80
WIRE 352 -80 240 -80
WIRE 160 -48 160 -80
WIRE -192 0 -192 -32
WIRE 352 32 352 -80
WIRE 160 48 160 32
WIRE 272 48 160 48
WIRE 272 80 272 48
WIRE 288 80 272 80
WIRE 48 160 -192 160
WIRE 160 160 160 48
WIRE 160 160 112 160
WIRE 352 160 352 128
WIRE 432 160 352 160
WIRE 576 160 496 160
WIRE -192 176 -192 160
WIRE 576 192 576 160
WIRE 352 208 352 160
WIRE 288 256 224 256
WIRE 160 272 160 160
WIRE 224 272 224 256
WIRE 224 272 160 272
WIRE -192 288 -192 256
WIRE 160 304 160 272
WIRE 576 304 576 272
WIRE 160 416 160 384
WIRE 352 416 352 304
FLAG 576 304 0
FLAG 160 416 0
FLAG 352 416 0
FLAG -192 288 0
FLAG 576 160 VOUT
FLAG -192 160 VIN
FLAG -192 0 0
SYMBOL cap 112 144 R90
WINDOW 0 0 32 VBottom 2
WINDOW 3 32 32 VTop 2
SYMATTR InstName C1
SYMATTR Value 47µ
SYMBOL res 176 400 R180
WINDOW 0 36 76 Left 2
WINDOW 3 36 40 Left 2
SYMATTR InstName R2
SYMATTR Value 47k
SYMBOL res 176 48 R180
WINDOW 0 36 76 Left 2
WINDOW 3 36 40 Left 2
SYMATTR InstName R3
SYMATTR Value 47k
SYMBOL npn 288 32 R0
SYMATTR InstName Q1
SYMATTR Value 2N3904
SYMBOL pnp 288 304 M180
SYMATTR InstName Q2
SYMATTR Value 2N3906
SYMBOL cap 496 144 R90
WINDOW 0 0 32 VBottom 2
WINDOW 3 32 32 VTop 2
SYMATTR InstName C2
SYMATTR Value 47µ
SYMBOL res 560 176 R0
SYMATTR InstName R4
SYMATTR Value 10
SYMBOL voltage -192 160 R0
WINDOW 123 24 124 Left 2
WINDOW 39 0 0 Left 2
SYMATTR InstName V1
SYMATTR Value SINE(0 500mV 1kHz)
SYMATTR Value2 AC 10mV
SYMBOL voltage -192 -128 R0
WINDOW 123 0 0 Left 2
WINDOW 39 0 0 Left 2
SYMATTR InstName V2
SYMATTR Value 9
TEXT -230 440 Left 2 !;op
TEXT -224 408 Left 2 !.tran 0 8ms 4ms
