Version 4
SHEET 1 880 680
WIRE 240 -128 -192 -128
WIRE -192 -112 -192 -128
WIRE 240 -80 240 -128
WIRE 240 -80 160 -80
WIRE 352 -80 240 -80
WIRE 160 -48 160 -80
WIRE -192 0 -192 -32
WIRE 352 32 352 -80
WIRE 160 48 160 32
WIRE 272 48 160 48
WIRE 160 64 160 48
WIRE 272 80 272 48
WIRE 288 80 272 80
WIRE -64 160 -192 160
WIRE 48 160 16 160
WIRE 160 160 160 128
WIRE 160 160 112 160
WIRE 352 160 352 128
WIRE 432 160 352 160
WIRE 576 160 496 160
WIRE -192 176 -192 160
WIRE 160 192 160 160
WIRE 576 192 576 160
WIRE 352 256 352 160
WIRE -192 288 -192 256
WIRE 160 304 160 256
WIRE 288 304 160 304
WIRE 576 304 576 272
WIRE 160 368 160 304
WIRE 352 416 352 352
WIRE 160 480 160 448
FLAG 576 304 0
FLAG 160 480 0
FLAG 352 416 0
FLAG -192 288 0
FLAG 576 160 VOUT
FLAG -192 160 VIN
FLAG -192 0 0
SYMBOL diode 144 64 R0
SYMATTR InstName D1
SYMATTR Value MMSD4148
SYMBOL diode 144 192 R0
WINDOW 3 46 43 Left 2
SYMATTR InstName D2
SYMATTR Value MMSD4148
SYMBOL cap 112 144 R90
WINDOW 0 0 32 VBottom 2
WINDOW 3 32 32 VTop 2
SYMATTR InstName C1
SYMATTR Value 470µ
SYMBOL res 32 144 R90
WINDOW 0 0 56 VBottom 2
WINDOW 3 32 56 VTop 2
SYMATTR InstName Rin
SYMATTR Value 1e-15
SYMBOL res 176 464 R180
WINDOW 0 36 76 Left 2
WINDOW 3 36 40 Left 2
SYMATTR InstName R1
SYMATTR Value 47k
SYMBOL res 176 48 R180
WINDOW 0 36 76 Left 2
WINDOW 3 36 40 Left 2
SYMATTR InstName R2
SYMATTR Value 47k
SYMBOL npn 288 32 R0
SYMATTR InstName Q1
SYMATTR Value 2N3904
SYMBOL pnp 288 352 M180
SYMATTR InstName Q2
SYMATTR Value 2N3906
SYMBOL cap 496 144 R90
WINDOW 0 0 32 VBottom 2
WINDOW 3 32 32 VTop 2
SYMATTR InstName C2
SYMATTR Value 470µ
SYMBOL res 560 176 R0
SYMATTR InstName R4
SYMATTR Value 10
SYMBOL voltage -192 160 R0
WINDOW 123 24 124 Left 2
WINDOW 39 0 0 Left 2
SYMATTR InstName V1
SYMATTR Value SINE(0 {VO} 1kHz)
SYMATTR Value2 AC 10mV
SYMBOL voltage -192 -128 R0
WINDOW 123 0 0 Left 2
WINDOW 39 0 0 Left 2
SYMATTR InstName V2
SYMATTR Value 9
TEXT 634 -24 Left 2 !;op
TEXT 496 -56 Left 2 !.tran 0 8ms 4ms
TEXT 474 -96 Left 2 !.param VO=10mV
TEXT 290 -128 Left 2 !.step param VO 10mV 150mV 10mV
