Version 4
SHEET 1 880 680
WIRE -144 -64 -192 -64
WIRE 48 -64 -64 -64
WIRE 208 -64 48 -64
WIRE 48 -16 48 -64
WIRE 208 -16 208 -64
WIRE -192 48 -192 -64
WIRE 208 80 208 64
WIRE 288 80 208 80
WIRE 448 80 352 80
WIRE 208 96 208 80
WIRE 448 112 448 80
WIRE -96 144 -240 144
WIRE 48 144 48 64
WIRE 48 144 -32 144
WIRE 144 144 48 144
WIRE -240 192 -240 144
WIRE 208 224 208 192
WIRE 320 224 208 224
WIRE 48 240 48 144
WIRE 208 240 208 224
WIRE 448 240 448 192
WIRE 320 256 320 224
WIRE -240 320 -240 272
WIRE 48 352 48 320
WIRE 128 352 48 352
WIRE 208 352 208 320
WIRE 208 352 128 352
WIRE 320 352 320 320
WIRE 320 352 208 352
WIRE 128 384 128 352
FLAG -192 48 0
FLAG 128 384 0
FLAG 448 240 0
FLAG -240 320 0
FLAG 448 80 VOUT
FLAG -240 144 VIN
SYMBOL npn 144 96 R0
SYMATTR InstName Q1
SYMATTR Value 2N3904
SYMBOL res 192 224 R0
SYMATTR InstName RE
SYMATTR Value 470
SYMBOL res 192 -32 R0
SYMATTR InstName RC
SYMATTR Value 3k
SYMBOL res 32 -32 R0
SYMATTR InstName RB2
SYMATTR Value 30k
SYMBOL res 32 224 R0
SYMATTR InstName RB1
SYMATTR Value 6.8k
SYMBOL voltage -48 -64 R90
WINDOW 0 -32 56 VBottom 2
WINDOW 3 32 56 VTop 2
WINDOW 123 0 0 Left 2
WINDOW 39 0 0 Left 2
SYMATTR InstName VCC
SYMATTR Value 9
SYMBOL res 432 96 R0
SYMATTR InstName R1
SYMATTR Value 10k
SYMBOL voltage -240 176 R0
WINDOW 123 24 124 Left 2
WINDOW 39 0 0 Left 2
SYMATTR InstName VS
SYMATTR Value SINE(0 1.0mV 1kHz)
SYMATTR Value2 AC 1mV
SYMBOL cap 304 256 R0
SYMATTR InstName CE
SYMATTR Value 47µ
SYMBOL cap 352 64 R90
WINDOW 0 0 32 VBottom 2
WINDOW 3 32 32 VTop 2
SYMATTR InstName C2
SYMATTR Value 47µ
SYMBOL cap -32 128 R90
WINDOW 0 0 32 VBottom 2
WINDOW 3 32 32 VTop 2
SYMATTR InstName C1
SYMATTR Value 47µ
TEXT -132 80 Left 2 !;op
TEXT -274 408 Left 2 !.ac dec 1000 1 1e9
TEXT -272 440 Left 2 !;tran 0 8ms 4ms
